test/benchmarks/psse/RENA/ThreeBusRenewable.raw
0,   100.00,  32, 0, 1, 60.00     / PSS(R)E 32 RAW created by rawd32  WED, NOV 03 2021  16:19


   101,'BUS 1       ', 138.0000,1,   1,   1,   1,1.00484,  -1.2483
   102,'BUS 2       ', 138.0000,3,   1,   1,   1,1.01000,  -0.8143
   103,'BUS 3       ', 138.0000,2,   1,   1,   1,1.01500,   0.2863
 0 /End of Bus data, Begin Load data
   101,'1 ',1,   1,   1,    30.000,    10.000,     0.000,     0.000,     0.000,     0.000,   1,1
   102,'1 ',1,   1,   1,    30.000,    10.000,     0.000,     0.000,     0.000,     0.000,   1,1
 0 /End of Load data, Begin Fixed shunt data
 0 /End of Fixed shunt data, Begin Generator data
   102,'1 ',    40.000,     9.952,    99.000,   -99.000,1.01000,     0,   100.000, 0.00000E+0, 1.00000E-4, 0.00000E+0, 0.00000E+0,1.00000,1,  100.0,   318.000,     0.000,   1,1.0000
   103,'1 ',    40.000,     9.952,    99.000,   -99.000,1.01500,     0,   100.000, 0.00000E+0, 9.99900E+3, 0.00000E+0, 0.00000E+0,1.00000,1,  100.0,   318.000,     0.000,   1,1.0000,    ,      ,    ,      ,    ,      ,1, 1.0000
 0 /End of Generator data, Begin Branch data
   101,    102,'1 ', 1.00000E-2, 1.20000E-1,   0.00000,  250.00,  250.00,  250.00,  0.00000,  0.00000,  0.00000,  0.00000,1,1,   0.00,   1,1.0000
   101,    103,'1 ', 1.00000E-2, 1.20000E-1,   0.00000,  250.00,  250.00,  250.00,  0.00000,  0.00000,  0.00000,  0.00000,1,1,   0.00,   1,1.0000
   102,    103,'1 ', 1.00000E-2, 1.20000E-1,   0.00000,  250.00,  250.00,  250.00,  0.00000,  0.00000,  0.00000,  0.00000,1,1,   0.00,   1,1.0000
 0 /End of Branch data, Begin Transformer data
 0 /End of Transformer data, Begin Area interchange data
 0 /End of Area interchange data, Begin Two-terminal dc line data
 0 /End of Two-terminal dc line data, Begin VSC dc line data
 0 /End of VSC dc line data, Begin Impedance correction table data
 0 /End of Impedance correction table data, Begin Multi-terminal dc line data
 0 /End of Multi-terminal dc line data, Begin Multi-section line data
 0 /End of Multi-section line data, Begin Zone data
 0 /End of Zone data, Begin Inter-area transfer data
 0 /End of Inter-area transfer data, Begin Owner data
 0 /End of Owner data, Begin FACTS device data
 0 /End of FACTS device data, Begin Switched shunt data
 0 /End of Switched shunt data, Begin GNE device data
 0 /End of GNE device data
Q
